
SIMULATION
  SIMULATION_TYPE SUBSURFACE
  PROCESS_MODELS
    SUBSURFACE_FLOW Flow
      MODE GAS_WATER
      OPTIONS
       RESERVOIR_DEFAULTS
       ISOTHERMAL
       HYSTERESIS
       STRAND
      /
    / ! end of subsurface_flow
  /
END  !! end simulation block

SUBSURFACE

#=========================== discretization ===================================

GRID
  TYPE grdecl ../include/ccs_3df_kh.grdecl
END

